<configuration>
  <input>
    <net-file value="net_tls.net.xml"/>
    <route-files value="routes_tls.rou.xml"/>
  </input>
  <time>
    <begin value="0"/>
    <end value="600"/>
  </time>
</configuration>
